   10
 MP2/VTZ  ENERGY=-433.72510791
 C          1.9238034677       -0.0177591429        0.0000000000
 N          1.2524094958       -1.1530826398        0.0000000000
 N          3.2807560177       -0.0261875635        0.0000000000
 N          1.2705061315        1.1298828513        0.0000000000
 H          3.7979787343        0.8300970817        0.0000000000
 H          3.7865484408       -0.8892612685        0.0000000000
 H          1.7660063071       -2.0148751624        0.0000000000
 H          0.1559743682       -1.1412954556        0.0000000000
 H          1.7945532405        1.9849744038        0.0000000000
 H          0.1831724162        1.1328219540        0.0000000000
