   10
 MP2/VTZ  ENERGY=-643.11581843
 C          0.0244717429       -1.4893835814        0.0000000000
 N          0.2603027850       -0.8568726520       -1.1359459580
 N         -0.4742483936       -2.7596436349        0.0000000000
 N          0.2603027850       -0.8568726520        1.1359459580
 H         -0.3420896558       -3.2908365152        0.8431471671
 H         -0.3420896558       -3.2908365152       -0.8431471671
 H         -0.0210495954       -1.2740462358       -2.0049789858
 H          0.4841783510        0.1945444932       -1.0193225887
 H         -0.0210495954       -1.2740462358        2.0049789858
 H          0.4841783510        0.1945444932        1.0193225887
