7
 MP2/VTZ  ENERGY=-433.72510791
 C         -3.3933589099       -0.0142244696        0.0000000000
 H         -3.7447244642       -0.5554901698        0.8759587567
 H         -3.7447244642       -0.5554901698       -0.8759587567
 C         -1.8783085443        0.0020674793        0.0000000000
 H         -3.7947552402        0.9934566791        0.0000000000
 O         -1.3048962696       -1.1266149178        0.0000000000
 O         -1.3027104274        1.1263463207        0.0000000000
