5
MP2/VTZ  ENERGY=-643.11581843
C         -1.1523664291        2.1045303915        0.0000000000
H         -1.6753364606        1.1445382523        0.0000000000
H         -1.4722564658        2.6585975292       -0.8805448496
S          0.6610264825        1.8830318436        0.0000000000
H         -1.4722564658        2.6585975292        0.8805448496
