5
MP2/VTZ  ENERGY=-320.51065251
C         -0.5222911461       -2.4823622799        0.0000000000
H         -1.4472340244       -1.8901630564        0.0000000000
H         -0.5425336566       -3.1277533791        0.8809622732
H         -0.5425336566       -3.1277533791       -0.8809622732
O          0.6269385911       -1.6676092958        0.0000000000
